*HEADING
ABAQUS job created on 13-Oct-00 at 14:52:27
**
*PREPRINT, CONTACT=NO, ECHO=NO, HISTORY=NO, MODEL=NO
*NODE
       1,            0.,            0.
       2,      0.798166,            0.
       3,       1.59633,            0.
       4,       2.39449,            0.
       5,       3.19266,            0.
       6,       3.99082,            0.
       7,       4.78899,            0.
       8,       5.58715,            0.
       9,       6.38532,            0.
      10,       7.18348,            0.
      11,       7.98165,            0.
      12,       8.77981,            0.
      13,       9.57798,            0.
      14,       10.3761,            0.
      15,       11.1743,            0.
      16,       11.9724,            0.
      17,       12.7706,            0.
      18,       13.5688,            0.
      19,       14.3669,            0.
      20,       15.1651,            0.
** ... 4050 like lines cut
**
**
*ELEMENT, TYPE=CPE4, ELSET=P1
       1,       1,       2,     112,     111
       2,       2,       3,     113,     112
       3,       3,       4,     114,     113
       4,       4,       5,     115,     114
       5,       5,       6,     116,     115
       6,       6,       7,     117,     116
       7,       7,       8,     118,     117
       8,       8,       9,     119,     118
       9,       9,      10,     120,     119
      10,      10,      11,     121,     120
      11,      11,      12,     122,     121
      12,      12,      13,     123,     122
      13,      13,      14,     124,     123
      14,      14,      15,     125,     124
      15,      15,      16,     126,     125
      16,      16,      17,     127,     126
      17,      17,      18,     128,     127
      18,      18,      19,     129,     128
      19,      19,      20,     130,     129
      20,      20,      21,     131,     130
** ... 232 like lines cut
*ELEMENT, TYPE=CPE4, ELSET=DESIGN_ELEM
     110,     111,     112,     222,     221
     111,     112,     113,     223,     222
     112,     113,     114,     224,     223
     113,     114,     115,     225,     224
     114,     115,     116,     226,     225
     115,     116,     117,     227,     226
     116,     117,     118,     228,     227
     117,     118,     119,     229,     228
     118,     119,     120,     230,     229
     119,     120,     121,     231,     230
     120,     121,     122,     232,     231
     121,     122,     123,     233,     232
     122,     123,     124,     234,     233
     123,     124,     125,     235,     234
     124,     125,     126,     236,     235
     125,     126,     127,     237,     236
     126,     127,     128,     238,     237
     127,     128,     129,     239,     238
     128,     129,     130,     240,     239
     129,     130,     131,     241,     240
** ... 3652 like lines cut
**
** pshell1
**
*SOLID SECTION, ELSET=P1, MATERIAL=MAT11
          1.,
**
** DESIGN_ELEM
**
*SOLID SECTION, ELSET=DESIGN_ELEM, MATERIAL=MAT11
          1.,
**
** mat11
**
*MATERIAL, NAME=MAT11
**
*ELASTIC, TYPE=ISO
     210000.,         0.3
**
*NSET, NSET=SPC11
    3961,
*NSET, NSET=SPC13
       1,     111,     221,     331,     441,     551,     661,     771,
     881,     991,    1101,    1211,    1321,    1431,    1541,    1651,
    1761,    1871,    1981,    2091,    2201,    2311,    2421,    2531,
    2641,    2751,    2861,    2971,    3081,    3191,    3301,    3411,
    3521,    3631,    3741,     3851
*NSET, NSET=FORCE1
     109,      110
*ELSET, ELSET=frozen_elements, GENERATE
  1,109,1
  218,3815,109
  3816,3924,1
**
** Step  1, step1
** LoadCase, DEFAULT.SC1
**
*STEP, AMPLITUDE=RAMP, PERTURBATION
**
*STATIC
**
*BOUNDARY, OP=NEW
SPC11, 1,,          0.
SPC11, 2,,          0.
SPC13, 1,,          0.
**
*CLOAD, OP=NEW
4070, 1, 0.
FORCE1, 1,  0.
FORCE1, 2,     39.9089
**
**
*END STEP
